*Heading
** Job name: 5H Model name: Model-1
** Generated by: Abaqus/CAE 6.14-1
*Preprint, echo=NO, model=NO, history=NO, contact=NO
**
** PARTS
**
*Part, name=Beam
*Node
      1, -0.0799999982, -0.00999999978,  0.405000001
      2, -0.0799999982, -0.00898400042,  0.405000001
      3, -0.0799999982, -0.00999999978,  0.395500004
      4, -0.0799999982, -0.00898400042,  0.395500004
      5, -0.0799999982, -0.00999999978,  0.386000007
      6, -0.0799999982, -0.00898400042,  0.386000007
      7, -0.0799999982, -0.00999999978,   0.37650001
      8, -0.0799999982, -0.00898400042,   0.37650001
      9, -0.0799999982, -0.00999999978,  0.367000014
     10, -0.0799999982, -0.00898400042,  0.367000014
     11, -0.0799999982, -0.00999999978,  0.357499987
     12, -0.0799999982, -0.00898400042,  0.357499987
     13, -0.0799999982, -0.00999999978,   0.34799999
     14, -0.0799999982, -0.00898400042,   0.34799999
     15, -0.0799999982, -0.00999999978,  0.338499993
     16, -0.0799999982, -0.00898400042,  0.338499993
     17, -0.0799999982, -0.00999999978,  0.328999996
     18, -0.0799999982, -0.00898400042,  0.328999996
     19, -0.0799999982, -0.00999999978,  0.319499999
     20, -0.0799999982, -0.00898400042,  0.319499999
** ... 880 like lines cut
*Element, type=C3D8R
  1,  91,  92,  94,  93,   1,   2,   4,   3
  2,  93,  94,  96,  95,   3,   4,   6,   5
  3,  95,  96,  98,  97,   5,   6,   8,   7
  4,  97,  98, 100,  99,   7,   8,  10,   9
  5,  99, 100, 102, 101,   9,  10,  12,  11
  6, 101, 102, 104, 103,  11,  12,  14,  13
  7, 103, 104, 106, 105,  13,  14,  16,  15
  8, 105, 106, 108, 107,  15,  16,  18,  17
  9, 107, 108, 110, 109,  17,  18,  20,  19
 10, 109, 110, 112, 111,  19,  20,  22,  21
 11, 111, 112, 114, 113,  21,  22,  24,  23
 12, 113, 114, 116, 115,  23,  24,  26,  25
 13, 115, 116, 118, 117,  25,  26,  28,  27
 14, 117, 118, 120, 119,  27,  28,  30,  29
 15, 119, 120, 122, 121,  29,  30,  32,  31
 16, 121, 122, 124, 123,  31,  32,  34,  33
 17, 123, 124, 126, 125,  33,  34,  36,  35
 18, 125, 126, 128, 127,  35,  36,  38,  37
 19, 127, 128, 130, 129,  37,  38,  40,  39
 20, 129, 130, 132, 131,  39,  40,  42,  41
** ... 376 like lines cut
*Nset, nset=Set-1, generate
   1,  900,    1
*Elset, elset=Set-1, generate
   1,  396,    1
*Nset, nset=Output, generate
 372,  386,    2
*Orientation, name=Ori-1
1., 0., 0., 0., 1., 0.
1, 0.
** Section: Beam Section
*Solid Section, elset=Set-1, orientation=Ori-1, stack direction=1, material=Aluminum
,
*End Part
**  
*Part, name="PZT Patch"
*Node
      1, -0.0599999987,           0., 0.0759999976
      2, -0.0599999987, 0.000203000003, 0.0759999976
      3, -0.0599999987,           0., 0.0665000007
      4, -0.0599999987, 0.000203000003, 0.0665000007
      5, -0.0599999987,           0.,        0.057
      6, -0.0599999987, 0.000203000003,        0.057
      7, -0.0599999987,           0., 0.0474999994
      8, -0.0599999987, 0.000203000003, 0.0474999994
      9, -0.0599999987,           0., 0.0379999988
     10, -0.0599999987, 0.000203000003, 0.0379999988
     11, -0.0599999987,           0.,       0.0285
     12, -0.0599999987, 0.000203000003,       0.0285
     13, -0.0599999987,           0., 0.0189999994
     14, -0.0599999987, 0.000203000003, 0.0189999994
     15, -0.0599999987,           0., 0.00949999969
     16, -0.0599999987, 0.000203000003, 0.00949999969
     17, -0.0599999987,           0.,           0.
     18, -0.0599999987, 0.000203000003,           0.
     19, -0.0521599986,           0., 0.0759999976
     20, -0.0521599986, 0.000203000003, 0.0759999976
** ... 88 like lines cut
*Element, type=C3D8E
 1,  19,  20,  22,  21,   1,   2,   4,   3
 2,  21,  22,  24,  23,   3,   4,   6,   5
 3,  23,  24,  26,  25,   5,   6,   8,   7
 4,  25,  26,  28,  27,   7,   8,  10,   9
 5,  27,  28,  30,  29,   9,  10,  12,  11
 6,  29,  30,  32,  31,  11,  12,  14,  13
 7,  31,  32,  34,  33,  13,  14,  16,  15
 8,  33,  34,  36,  35,  15,  16,  18,  17
 9,  37,  38,  40,  39,  19,  20,  22,  21
10,  39,  40,  42,  41,  21,  22,  24,  23
11,  41,  42,  44,  43,  23,  24,  26,  25
12,  43,  44,  46,  45,  25,  26,  28,  27
13,  45,  46,  48,  47,  27,  28,  30,  29
14,  47,  48,  50,  49,  29,  30,  32,  31
15,  49,  50,  52,  51,  31,  32,  34,  33
16,  51,  52,  54,  53,  33,  34,  36,  35
17,  55,  56,  58,  57,  37,  38,  40,  39
18,  57,  58,  60,  59,  39,  40,  42,  41
19,  59,  60,  62,  61,  41,  42,  44,  43
20,  61,  62,  64,  63,  43,  44,  46,  45
** ... 20 like lines cut
*Nset, nset=Set-1, generate
   1,  108,    1
*Elset, elset=Set-1, generate
  1,  40,   1
*Orientation, name=Ori-1
1., 0., 0., 0., 1., 0.
1, 0.
** Section: PZT Section
*Solid Section, elset=Set-1, orientation=Ori-1, material=PZT-5H
,
*End Part
**  
**
** ASSEMBLY
**
*Assembly, name=Assembly
**  
*Instance, name="PZT Patch-1", part="PZT Patch"
       0.006,    -0.008984,      0.00432
       0.006,    -0.008984,      0.00432,        0.006,     0.991016,      0.00432,          90.
*End Instance
**  
*Instance, name=Beam-1, part=Beam
          0.,           0.,           0.
          0.,           0.,           0.,           0.,           1.,           0.,          90.
*End Instance
**  
*Nset, nset=Clamped, instance=Beam-1
  89,  90, 179, 180, 269, 270, 359, 360, 449, 450, 539, 540, 629, 630, 719, 720
 809, 810, 899, 900
*Nset, nset="Epot points", instance="PZT Patch-1", generate
   2,  108,    2
*Nset, nset=cen1, instance="PZT Patch-1", generate
 36,  90,  18
*Nset, nset=cen2, instance="PZT Patch-1", generate
 20,  74,  18
*Nset, nset=lat1, instance="PZT Patch-1"
  18, 108
*Nset, nset=lat2, instance="PZT Patch-1"
  2, 92
*Nset, nset=_PickedSet11, internal, instance=Beam-1
  89,  90, 179, 180, 269, 270, 359, 360, 449, 450, 539, 540, 629, 630, 719, 720
 809, 810, 899, 900
*Elset, elset=_PickedSet11, internal, instance=Beam-1, generate
  44,  396,   44
*Nset, nset=_PickedSet12, internal, instance="PZT Patch-1", generate
   1,  107,    2
*Elset, elset=_PickedSet12, internal, instance="PZT Patch-1", generate
  1,  40,   1
*Nset, nset=_PickedSet14, internal, instance="PZT Patch-1", generate
   2,  108,    2
*Elset, elset=_PickedSet14, internal, instance="PZT Patch-1", generate
  1,  40,   1
*Elset, elset=_CP-1-Beam-1_S4, internal, instance=Beam-1, generate
   1,  396,    1
*Surface, type=ELEMENT, name=CP-1-Beam-1
_CP-1-Beam-1_S4, S4
*Elset, elset="_CP-1-PZT Patch-1_S6", internal, instance="PZT Patch-1", generate
  1,  40,   1
*Surface, type=ELEMENT, name="CP-1-PZT Patch-1"
"_CP-1-PZT Patch-1_S6", S6
** Constraint: CP-1-PZT Patch-1-Beam-1
*Tie, name="CP-1-PZT Patch-1-Beam-1", adjust=yes, type=NODE TO SURFACE
CP-1-Beam-1, "CP-1-PZT Patch-1"
*End Assembly
** 
** MATERIALS
** 
*Material, name=Aluminum
*Density
2758.,
*Elastic
 7.2e+10, 0.33
*Material, name=PZT
*Density
7700.,
*Dielectric
 1.65e-08,
*Elastic
 6.9e+10, 0.31
*Piezoelectric, type=E
0.,         0.,         0.,         0.,         0.,         0., -1.709e-10,         0.
 -1.709e-10,         0.,         0.,         0.,         0.,         0.,         0.,         0.
         0.,         0.
*Material, name=PZT-5H
*Density
7500.,
*Dielectric, type=ORTHO
 1.505e-08, 1.301e-08, 1.505e-08
*Elastic, type=ENGINEERING CONSTANTS
 6.061e+10, 4.831e+10, 6.061e+10,     0.512,     0.289,     0.408,   2.3e+10,  2.35e+10
   2.3e+10,
*Piezoelectric, type=E
0.,        0.,        0.,  7.41e-10,        0.,        0., -2.74e-10,  5.93e-10
 -2.74e-10,        0.,        0.,        0.,        0.,        0.,        0.,        0.
        0.,  7.41e-10
** 
** BOUNDARY CONDITIONS
** 
** Name: Electric Potential BC Type: Electric potential
*Boundary
_PickedSet12, 9, 9
** Name: Fixed End BC Type: Displacement/Rotation
*Boundary
_PickedSet11, 1, 1
_PickedSet11, 2, 2
_PickedSet11, 3, 3
_PickedSet11, 4, 4
_PickedSet11, 5, 5
_PickedSet11, 6, 6
** ----------------------------------------------------------------
** 
** STEP: Step-1
** 
*Step, name=Step-1, nlgeom=NO
*Static
1., 1., 1e-05, 1.
** 
** BOUNDARY CONDITIONS
** 
** Name: Applied voltage BC Type: Electric potential
*Boundary
_PickedSet14, 9, 9, 10.
** 
** OUTPUT REQUESTS
** 
*Restart, write, frequency=0
** 
** FIELD OUTPUT: F-Output-1
** 
*Output, field, variable=PRESELECT
** 
** HISTORY OUTPUT: H-Output-1
** 
*Output, history, variable=PRESELECT
*End Step
