$ASSIGN OUTPUT4='S10SV1.OUT4' UNIT=15 DELETE
INIT MASTER(S)
ID    PZT CQUAD4 ELEMENTS 
APP   DISPLACEMENT                                                          
SOL   101  
$DIAG 14
$
$compile sestatic,souin=mscsou,nolist,noref$
$include 'static.dmap'  
$   
TIME  60                                                                                                                                       
CEND                                                                            
TITLE = PZT-5A temperature modeling
$ GLOBAL CASE
LABEL = CONSTRAINTS ARE - FIXED AND FREE ENDS.
SPC = 1                                                                      
TEMP = 1                                                                                                                    
$ Define set of elements for strain output
SET 4 =104
$ Define set of nodes for displacement output
SET 5 =	325,335,345,355,365,375,385,395
OUTPUT                                                                
   DISP(PRINT) = 5
   STRAIN = 4                                                
BEGIN BULK   
PARAM,AUTOSPC,YES
$PARAM,POST,-2
$PARAM,K6ROT,100.
GRID,1,,0.00,0.00,0.00
GRID,2,,0.00,7.84,0.00
GRID,3,,0.00,15.68,0.00
GRID,4,,0.00,23.52,0.00
GRID,5,,0.00,31.36,0.00
GRID,6,,0.00,39.20,0.00
GRID,7,,0.00,47.04,0.00
GRID,8,,0.00,54.88,0.00
GRID,9,,0.00,62.72,0.00
GRID,10,,0.00,70.56,0.00
GRID,11,,3.00,0.00,0.00
GRID,12,,3.00,7.84,0.00
GRID,13,,3.00,15.68,0.00
GRID,14,,3.00,23.52,0.00
GRID,15,,3.00,31.36,0.00
GRID,16,,3.00,39.20,0.00
GRID,17,,3.00,47.04,0.00
GRID,18,,3.00,54.88,0.00
GRID,19,,3.00,62.72,0.00
GRID,20,,3.00,70.56,0.00
$ ... 430 like lines cut
CQUAD4,1,2,1,11,12,2
CQUAD4,2,2,2,12,13,3
CQUAD4,3,2,3,13,14,4
CQUAD4,4,2,4,14,15,5
CQUAD4,5,2,5,15,16,6
CQUAD4,6,2,6,16,17,7
CQUAD4,7,2,7,17,18,8
CQUAD4,8,2,8,18,19,9
CQUAD4,9,2,9,19,20,10
CQUAD4,10,2,11,21,22,12
CQUAD4,11,2,12,22,23,13
CQUAD4,12,2,13,23,24,14
CQUAD4,13,2,14,24,25,15
CQUAD4,14,2,15,25,26,16
CQUAD4,15,2,16,26,27,17
CQUAD4,16,2,17,27,28,18
CQUAD4,17,2,18,28,29,19
CQUAD4,18,2,19,29,30,20
CQUAD4,19,2,21,31,32,22
CQUAD4,20,2,22,32,33,23
$ ... 376 like lines cut
$ Property card definition for aluminum beam substrate
PCOMP,2,-5.08E-1,,,,,,,+PC1
+PC1,2,1.016,0.00000,YES
$ Property card definition for aluminum beam substrate and piezoactuator lay-up
PCOMP,5,-5.08E-1,,,,,,,+PC5
+PC5,2,1.016,0.00000,YES,4,2.03E-1,0.0000,YES
$ Aluminum material properties
MAT1,2,7.2+4,,0.33333,2.758E-9,.0
$Piezo ceramic material properties, non-zero CTE
MAT1,4,6.9+4,,0.31000,7.7E-9,8.42-7 
SPC1,1,123456,1,THRU,10
TEMP,1,23,10.00,24,10.00,25,10.00
TEMP,1,26,10.00,27,10.00,28,10.00
TEMP,1,33,10.00,34,10.00,35,10.00
TEMP,1,36,10.00,37,10.00,38,10.00
TEMP,1,43,10.00,44,10.00,45,10.00
TEMP,1,46,10.00,47,10.00,48,10.00
TEMP,1,53,10.00,54,10.00,55,10.00
TEMP,1,56,10.00,57,10.00,58,10.00
TEMP,1,63,10.00,64,10.00,65,10.00
TEMP,1,66,10.00,67,10.00,68,10.00
TEMP,1,73,10.00,74,10.00,75,10.00
TEMP,1,76,10.00,77,10.00,78,10.00
TEMP,1,83,10.00,84,10.00,85,10.00
TEMP,1,86,10.00,87,10.00,88,10.00
TEMP,1,93,10.00,94,10.00,95,10.00
TEMP,1,96,10.00,97,10.00,98,10.00
TEMP,1,103,10.00,104,10.00,105,10.00
TEMP,1,106,10.00,107,10.00,108,10.00
TEMPD,1,0.0
ENDDATA
